MODEL 1
REMARK VINA RESULT:      -8.0      0.000      0.000
REMARK  Name = CHEMBL332331 PubChem-44344999
REMARK  8 active torsions:
REMARK  status: ('A' for Active; 'I' for Inactive)
REMARK    1  A    between atoms: N_9  and  C_10
REMARK    2  A    between atoms: C_13  and  O_14
REMARK    3  A    between atoms: C_15  and  O_16
REMARK    4  A    between atoms: C_17  and  O_18
REMARK    5  A    between atoms: N_22  and  C_25
REMARK    6  A    between atoms: C_24  and  C_25
REMARK    7  A    between atoms: C_25  and  C_26
REMARK    8  A    between atoms: C_26  and  C_27
REMARK                            x       y       z     vdW  Elec       q    Type
REMARK                         _______ _______ _______ _____ _____    ______ ____
ROOT
ATOM      1  C   UNL     1      -2.933  20.249 -46.500  0.00  0.00    +0.000 A 
ATOM      2  N   UNL     1      -1.707  20.175 -47.102  0.00  0.00    +0.000 NA
ATOM      3  C   UNL     1      -1.133  18.967 -47.405  0.00  0.00    +0.000 A 
ATOM      4  N   UNL     1      -1.778  17.799 -47.110  0.00  0.00    +0.000 NA
ATOM      5  C   UNL     1      -2.997  17.877 -46.521  0.00  0.00    +0.000 A 
ATOM      6  C   UNL     1      -3.578  19.055 -46.209  0.00  0.00    +0.000 A 
ATOM      7  N   UNL     1      -4.750  18.850 -45.582  0.00  0.00    +0.000 NA
ATOM      8  C   UNL     1      -4.843  17.491 -45.536  0.00  0.00    +0.000 A 
ATOM      9  N   UNL     1      -3.788  16.869 -46.130  0.00  0.00    +0.000 N 
ATOM     10  N   UNL     1      -3.528  21.508 -46.161  0.00  0.00    +0.000 N 
ATOM     11  H   UNL     1      -4.197  21.516 -45.439  0.00  0.00    +0.000 HD
ENDROOT
BRANCH   9  12
ATOM     12  C   UNL     1      -3.492  15.434 -46.135  0.00  0.00    +0.000 C 
ATOM     13  O   UNL     1      -2.528  15.129 -47.117  0.00  0.00    +0.000 OA
ATOM     14  C   UNL     1      -2.046  13.839 -46.825  0.00  0.00    +0.000 C 
ATOM     15  C   UNL     1      -3.121  12.788 -47.117  0.00  0.00    +0.000 C 
ATOM     16  C   UNL     1      -4.374  13.107 -46.289  0.00  0.00    +0.000 C 
ATOM     17  C   UNL     1      -4.757  14.590 -46.368  0.00  0.00    +0.000 C 
BRANCH  15  18
ATOM     18  O   UNL     1      -3.416  12.779 -48.482  0.00  0.00    +0.000 OA
ATOM     19  H   UNL     1      -3.389  11.867 -48.812  0.00  0.00    +0.000 HD
ENDBRANCH  15  18
BRANCH  16  20
ATOM     20  O   UNL     1      -5.444  12.290 -46.661  0.00  0.00    +0.000 OA
ATOM     21  H   UNL     1      -5.482  11.519 -46.072  0.00  0.00    +0.000 HD
ENDBRANCH  16  20
BRANCH  17  22
ATOM     22  O   UNL     1      -5.314  14.888 -47.615  0.00  0.00    +0.000 OA
ATOM     23  H   UNL     1      -4.674  14.678 -48.313  0.00  0.00    +0.000 HD
ENDBRANCH  17  22
ENDBRANCH   9  12
BRANCH  10  25
ATOM     24  C   UNL     1      -3.200  23.907 -45.794  0.00  0.00    +0.000 C 
ATOM     25  C   UNL     1      -3.217  22.780 -46.810  0.00  0.00    +0.000 C 
BRANCH  25  26
ATOM     26  C   UNL     1      -4.204  23.095 -47.930  0.00  0.00    +0.000 C 
BRANCH  26  27
ATOM     27  C   UNL     1      -4.106  22.108 -49.047  0.00  0.00    +0.000 A 
ATOM     28  C   UNL     1      -5.162  21.219 -49.275  0.00  0.00    +0.000 A 
ATOM     29  C   UNL     1      -5.076  20.276 -50.304  0.00  0.00    +0.000 A 
ATOM     30  C   UNL     1      -3.928  20.214 -51.102  0.00  0.00    +0.000 A 
ATOM     31  C   UNL     1      -2.868  21.094 -50.869  0.00  0.00    +0.000 A 
ATOM     32  C   UNL     1      -2.955  22.038 -49.842  0.00  0.00    +0.000 A 
ENDBRANCH  26  27
ENDBRANCH  25  26
ENDBRANCH  10  25
TORSDOF 7
ENDMDL
