MODEL 1
REMARK VINA RESULT:      -8.5      0.000      0.000
REMARK  Name = CHEMBL3907924 PubChem-134131746
REMARK  9 active torsions:
REMARK  status: ('A' for Active; 'I' for Inactive)
REMARK    1  A    between atoms: C_1  and  N_9
REMARK    2  A    between atoms: C_3  and  C_23
REMARK    3  A    between atoms: C_7  and  C_11
REMARK    4  A    between atoms: C_13  and  O_19
REMARK    5  A    between atoms: C_14  and  O_18
REMARK    6  A    between atoms: C_15  and  O_17
REMARK    7  A    between atoms: C_23  and  C_25
REMARK    8  A    between atoms: C_31  and  C_35
REMARK    9  A    between atoms: C_36  and  C_37
REMARK                            x       y       z     vdW  Elec       q    Type
REMARK                         _______ _______ _______ _____ _____    ______ ____
ROOT
ATOM      1  C   UNL     1      -6.516  21.284 -44.371  0.00  0.00    +0.000 A 
ATOM      2  C   UNL     1      -7.708  22.013 -44.243  0.00  0.00    +0.000 A 
ATOM      3  C   UNL     1      -8.288  22.236 -42.985  0.00  0.00    +0.000 A 
ATOM      4  C   UNL     1      -7.664  21.700 -41.849  0.00  0.00    +0.000 A 
ATOM      5  C   UNL     1      -6.478  20.972 -41.966  0.00  0.00    +0.000 A 
ATOM      6  C   UNL     1      -5.906  20.767 -43.225  0.00  0.00    +0.000 A 
ENDROOT
BRANCH   1   9
ATOM      7  C   UNL     1      -4.797  21.763 -46.217  0.00  0.00    +0.000 C 
ATOM      8  O   UNL     1      -4.247  22.704 -45.583  0.00  0.00    +0.000 OA
ATOM      9  N   UNL     1      -5.904  21.047 -45.646  0.00  0.00    +0.000 N 
ATOM     10  H   UNL     1      -6.282  20.315 -46.185  0.00  0.00    +0.000 HD
BRANCH   7  11
ATOM     11  C   UNL     1      -4.297  21.399 -47.555  0.00  0.00    +0.000 C 
ATOM     12  C   UNL     1      -3.968  22.370 -48.422  0.00  0.00    +0.000 C 
ATOM     13  C   UNL     1      -3.425  22.113 -49.800  0.00  0.00    +0.000 C 
ATOM     14  C   UNL     1      -3.752  20.695 -50.287  0.00  0.00    +0.000 C 
ATOM     15  C   UNL     1      -3.461  19.648 -49.211  0.00  0.00    +0.000 C 
ATOM     16  C   UNL     1      -4.286  19.942 -47.959  0.00  0.00    +0.000 C 
BRANCH  15  17
ATOM     17  O   UNL     1      -2.100  19.617 -48.893  0.00  0.00    +0.000 OA
ATOM     18  H   UNL     1      -1.897  18.795 -48.419  0.00  0.00    +0.000 HD
ENDBRANCH  15  17
BRANCH  14  19
ATOM     19  O   UNL     1      -3.061  20.400 -51.463  0.00  0.00    +0.000 OA
ATOM     20  H   UNL     1      -3.559  20.740 -52.224  0.00  0.00    +0.000 HD
ENDBRANCH  14  19
BRANCH  13  21
ATOM     21  O   UNL     1      -2.045  22.329 -49.800  0.00  0.00    +0.000 OA
ATOM     22  H   UNL     1      -1.790  22.796 -48.990  0.00  0.00    +0.000 HD
ENDBRANCH  13  21
ENDBRANCH   7  11
ENDBRANCH   1   9
BRANCH   3  23
ATOM     23  C   UNL     1      -9.565  22.988 -42.893  0.00  0.00    +0.000 C 
ATOM     24  O   UNL     1     -10.621  22.427 -43.295  0.00  0.00    +0.000 OA
BRANCH  23  25
ATOM     25  C   UNL     1      -9.663  24.367 -42.350  0.00  0.00    +0.000 A 
ATOM     26  C   UNL     1      -9.464  25.498 -43.172  0.00  0.00    +0.000 A 
ATOM     27  C   UNL     1      -9.598  26.757 -42.598  0.00  0.00    +0.000 A 
ATOM     28  C   UNL     1      -9.920  26.920 -41.282  0.00  0.00    +0.000 A 
ATOM     29  C   UNL     1     -10.138  25.839 -40.434  0.00  0.00    +0.000 A 
ATOM     30  C   UNL     1     -10.009  24.551 -40.986  0.00  0.00    +0.000 A 
ATOM     31  C   UNL     1      -9.961  28.286 -41.096  0.00  0.00    +0.000 A 
ATOM     32  N   UNL     1      -9.670  28.886 -42.275  0.00  0.00    +0.000 NA
ATOM     33  N   UNL     1      -9.448  27.951 -43.195  0.00  0.00    +0.000 N 
ATOM     34  H   UNL     1      -9.216  28.107 -44.139  0.00  0.00    +0.000 HD
BRANCH  31  35
ATOM     35  C   UNL     1     -10.263  29.033 -39.867  0.00  0.00    +0.000 C 
ATOM     36  C   UNL     1     -11.436  28.939 -39.243  0.00  0.00    +0.000 C 
BRANCH  36  37
ATOM     37  C   UNL     1     -11.744  29.683 -38.015  0.00  0.00    +0.000 A 
ATOM     38  C   UNL     1     -11.867  31.083 -38.009  0.00  0.00    +0.000 A 
ATOM     39  C   UNL     1     -12.161  31.758 -36.821  0.00  0.00    +0.000 A 
ATOM     40  C   UNL     1     -12.334  31.041 -35.634  0.00  0.00    +0.000 A 
ATOM     41  C   UNL     1     -12.212  29.649 -35.634  0.00  0.00    +0.000 A 
ATOM     42  C   UNL     1     -11.918  28.973 -36.822  0.00  0.00    +0.000 A 
ENDBRANCH  36  37
ENDBRANCH  31  35
ENDBRANCH  23  25
ENDBRANCH   3  23
TORSDOF 9
ENDMDL
