MODEL 1
REMARK VINA RESULT:      -8.0      0.000      0.000
REMARK  Name = CHEMBL3669517 PubChem-68333199
REMARK  6 active torsions:
REMARK  status: ('A' for Active; 'I' for Inactive)
REMARK    1  A    between atoms: N_1  and  C_23
REMARK    2  A    between atoms: C_23  and  C_27
REMARK    3  A    between atoms: C_24  and  C_30
REMARK    4  A    between atoms: C_30  and  O_33
REMARK    5  A    between atoms: O_33  and  C_35
REMARK    6  A    between atoms: C_34  and  C_35
REMARK                            x       y       z     vdW  Elec       q    Type
REMARK                         _______ _______ _______ _____ _____    ______ ____
ROOT
ATOM      1  N   UNL     1      -6.770  20.954 -42.247  0.00  0.00    +0.000 N 
ATOM      2  C   UNL     1      -6.083  20.328 -43.375  0.00  0.00    +0.000 C 
ATOM      3  C   UNL     1      -6.812  19.079 -43.833  0.00  0.00    +0.000 C 
ATOM      4  C   UNL     1      -6.935  18.135 -42.650  0.00  0.00    +0.000 C 
ATOM      5  C   UNL     1      -7.829  18.709 -41.545  0.00  0.00    +0.000 C 
ATOM      6  C   UNL     1      -7.572  20.185 -41.325  0.00  0.00    +0.000 C 
ATOM      7  O   UNL     1      -8.113  20.761 -40.340  0.00  0.00    +0.000 OA
ATOM      8  C   UNL     1      -7.477  17.950 -40.248  0.00  0.00    +0.000 C 
ATOM      9  C   UNL     1      -8.701  17.377 -39.537  0.00  0.00    +0.000 C 
ATOM     10  N   UNL     1      -9.462  16.556 -40.477  0.00  0.00    +0.000 N 
ATOM     11  C   UNL     1      -9.792  17.093 -41.801  0.00  0.00    +0.000 C 
ATOM     12  C   UNL     1      -9.306  18.537 -41.955  0.00  0.00    +0.000 C 
ATOM     13  C   UNL     1      -9.807  15.204 -40.129  0.00  0.00    +0.000 A 
ATOM     14  N   UNL     1      -9.321  14.645 -38.984  0.00  0.00    +0.000 NA
ATOM     15  C   UNL     1      -9.631  13.370 -38.633  0.00  0.00    +0.000 A 
ATOM     16  C   UNL     1      -9.125  12.813 -37.456  0.00  0.00    +0.000 A 
ATOM     17  C   UNL     1      -9.458  11.499 -37.108  0.00  0.00    +0.000 A 
ATOM     18  C   UNL     1     -10.295  10.743 -37.936  0.00  0.00    +0.000 A 
ATOM     19  C   UNL     1     -10.804  11.296 -39.116  0.00  0.00    +0.000 A 
ATOM     20  C   UNL     1     -10.475  12.608 -39.467  0.00  0.00    +0.000 A 
ATOM     21  N   UNL     1     -10.961  13.163 -40.606  0.00  0.00    +0.000 NA
ATOM     22  C   UNL     1     -10.647  14.439 -40.954  0.00  0.00    +0.000 A 
ENDROOT
BRANCH   1  23
ATOM     23  C   UNL     1      -6.483  22.357 -41.974  0.00  0.00    +0.000 C 
BRANCH  23  27
ATOM     24  C   UNL     1      -9.369  24.877 -43.927  0.00  0.00    +0.000 A 
ATOM     25  C   UNL     1      -8.515  25.405 -42.946  0.00  0.00    +0.000 A 
ATOM     26  C   UNL     1      -7.572  24.588 -42.316  0.00  0.00    +0.000 A 
ATOM     27  C   UNL     1      -7.471  23.237 -42.663  0.00  0.00    +0.000 A 
ATOM     28  C   UNL     1      -8.322  22.703 -43.635  0.00  0.00    +0.000 A 
ATOM     29  C   UNL     1      -9.266  23.520 -44.265  0.00  0.00    +0.000 A 
BRANCH  24  30
ATOM     30  C   UNL     1     -10.372  25.726 -44.596  0.00  0.00    +0.000 C 
ATOM     31  N   UNL     1     -10.621  25.560 -45.856  0.00  0.00    +0.000 NA
ATOM     32  H   UNL     1     -11.290  26.126 -46.305  0.00  0.00    +0.000 HD
BRANCH  30  33
ATOM     33  O   UNL     1     -11.050  26.701 -43.843  0.00  0.00    +0.000 OA
BRANCH  33  35
ATOM     34  C   UNL     1     -11.989  27.110 -41.574  0.00  0.00    +0.000 C 
ATOM     35  C   UNL     1     -12.075  26.469 -42.913  0.00  0.00    +0.000 C 
ATOM     36  N   UNL     1     -13.095  25.725 -43.190  0.00  0.00    +0.000 NA
ATOM     37  H   UNL     1     -13.798  25.581 -42.516  0.00  0.00    +0.000 HD
ENDBRANCH  33  35
ENDBRANCH  30  33
ENDBRANCH  24  30
ENDBRANCH  23  27
ENDBRANCH   1  23
TORSDOF 5
ENDMDL
